<?xml version="1.0" encoding="UTF-8"?>

<!-- generated on Fri Sep 25 15:00:01 2020 by Eclipse SUMO polyconvert Version 1.7.0
<configuration xmlns:xsi="http://www.w3.org/2001/XMLSchema-instance" xsi:noNamespaceSchemaLocation="http://sumo.dlr.de/xsd/polyconvertConfiguration.xsd">

    <input>
        <net-file value="osm.net.xml"/>
        <osm-files value="osm_bbox.osm.xml"/>
        <osm.keep-full-type value="true"/>
        <type-file value="/usr/share/sumo/data/typemap/osmPolyconvert.typ.xml"/>
    </input>

    <output>
        <output-file value="osm.poly.xml"/>
    </output>

    <processing>
        <poi-layer-offset value="5"/>
    </processing>

    <report>
        <verbose value="true"/>
    </report>

</configuration>
-->

<additional xmlns:xsi="http://www.w3.org/2001/XMLSchema-instance" xsi:noNamespaceSchemaLocation="http://sumo.dlr.de/xsd/additional_file.xsd">
    <location netOffset="-384798.38,-6671137.75" convBoundary="-550.85,-1393.81,3269.02,4101.00" origBoundary="24.914235,60.105635,25.407609,60.197866" projParameter="+proj=utm +zone=35 +ellps=WGS84 +datum=WGS84 +units=m +no_defs"/>

    <poly id="117865379" type="man_made.pier" color="255,230,230" fill="1" layer="-1.00" shape="1657.181480,618.812950 1663.125236,626.039607 1665.742770,623.774230 1659.598576,616.709800 1658.289807,617.842490 1657.181480,618.812950"/>
    <poly id="122595198" type="building.train_station" color="255,230,230" fill="1" layer="-1.00" shape="1042.370697,1141.182613 1042.457634,1138.092946 1042.620760,1131.925091 1042.811936,1124.519350 1039.558897,1124.364420 1034.002766,1124.247845 1034.147830,1117.322743 1034.199417,1114.880544 1034.249274,1112.560986 1034.371142,1106.673022 1039.931112,1106.733759 1043.413676,1106.770094 1043.471090,1101.485930 1043.515004,1097.015717 1043.529887,1096.067992 1043.537142,1095.053639 1044.798427,1095.081195 1044.973961,1085.569679 1043.635011,1085.544543 1043.662309,1081.966388 1009.080153,1081.762748 1007.647594,1081.762832 1006.670944,1081.782136 1006.843309,1073.596880 1006.962065,1069.035177 1005.396992,1067.100293 1004.240746,1067.058331 1003.084152,1067.005235 1001.933453,1066.963101 1000.776859,1066.910007 999.928512,1067.660833 999.228177,1067.638090 996.124253,1069.774264 992.608368,1069.739012 984.810043,1069.658986 979.028125,1069.605253 977.023759,1067.472337 976.095989,1067.456692 975.467026,1066.339592 974.316673,1066.308599 973.160773,1066.277780 972.010767,1066.257922 970.854866,1066.227104 968.720649,1067.764704 968.650468,1072.102009 968.617562,1080.305210 967.334776,1080.300639 966.118555,1080.293992 931.667030,1079.652380 931.629649,1080.767973 930.931399,1080.812044 930.777117,1099.182605 928.181042,1099.085287 926.940585,1099.547469 926.163331,1100.262662 925.663435,1100.969202 925.445064,1101.800691 925.528333,1102.867942 926.143065,1103.528564 927.082995,1104.112174 928.008683,1104.239314 927.831373,1113.684038 927.650519,1121.769273 926.019331,1121.987327 925.287164,1122.901711 925.115972,1124.177498 925.145496,1125.123840 925.619127,1125.889161 926.265749,1126.504211 927.130771,1126.822696 930.125524,1126.885286 930.139816,1128.233296 930.035251,1136.628189 930.012491,1138.746310 929.964163,1142.358560 928.449920,1185.656696 926.876640,1185.594338 926.846970,1188.024714 926.811752,1190.455262 926.677405,1193.267809 928.279447,1193.184394 928.164932,1203.039499 927.713196,1237.678830 927.709504,1239.696057 927.496211,1244.071265 927.241431,1250.320003 941.283851,1250.695443 941.393026,1244.050055 941.571911,1237.859407 941.609546,1235.150177 949.122199,1235.160997 949.772234,1235.174153 950.898851,1187.809322 951.287498,1168.227873 951.630520,1151.099586 951.873961,1138.967035 951.908504,1136.514220 952.233293,1121.827096 973.969712,1122.308175 988.244199,1122.632000 1002.412591,1122.936901 1021.065480,1123.358377 1020.740069,1138.034359 1020.624016,1140.723742 1042.370697,1141.182613"/>
    <poly id="122595207" type="amenity.theatre" color="237,199,199" fill="1" layer="-1.00" shape="1105.174181,1212.287420 1104.942730,1223.929221 1108.059428,1223.988154 1107.734418,1240.112856 1107.658539,1244.093715 1104.447214,1244.026586 1104.072686,1262.838595 1104.589241,1262.844792 1104.488076,1267.974297 1104.379634,1273.404923 1110.069005,1273.528589 1109.852455,1284.400974 1109.786277,1287.623722 1103.580376,1287.493859 1103.258531,1303.540456 1103.236705,1304.622128 1103.219730,1305.503052 1135.292570,1306.142256 1141.214854,1306.258715 1141.224560,1305.857220 1141.239118,1305.254977 1141.629068,1285.862998 1135.606908,1285.749647 1135.833931,1274.319729 1141.900832,1274.442831 1142.497749,1244.758274 1139.625481,1244.702845 1139.799840,1235.860032 1140.026545,1224.775597 1142.826371,1224.822139 1142.983062,1217.016292 1143.057248,1213.336382 1139.751599,1213.272159 1139.818850,1210.082812 1139.860448,1208.030976 1133.899177,1207.915728 1133.886004,1208.384196 1124.430135,1208.199487 1114.579734,1208.004804 1114.593942,1207.391428 1108.671496,1207.275010 1108.568931,1212.359981 1107.102102,1212.327662 1105.174181,1212.287420"/>
    <poly id="122595207#1" type="building.public" color="255,230,230" fill="1" layer="-1.00" shape="1105.174181,1212.287420 1104.942730,1223.929221 1108.059428,1223.988154 1107.734418,1240.112856 1107.658539,1244.093715 1104.447214,1244.026586 1104.072686,1262.838595 1104.589241,1262.844792 1104.488076,1267.974297 1104.379634,1273.404923 1110.069005,1273.528589 1109.852455,1284.400974 1109.786277,1287.623722 1103.580376,1287.493859 1103.258531,1303.540456 1103.236705,1304.622128 1103.219730,1305.503052 1135.292570,1306.142256 1141.214854,1306.258715 1141.224560,1305.857220 1141.239118,1305.254977 1141.629068,1285.862998 1135.606908,1285.749647 1135.833931,1274.319729 1141.900832,1274.442831 1142.497749,1244.758274 1139.625481,1244.702845 1139.799840,1235.860032 1140.026545,1224.775597 1142.826371,1224.822139 1142.983062,1217.016292 1143.057248,1213.336382 1139.751599,1213.272159 1139.818850,1210.082812 1139.860448,1208.030976 1133.899177,1207.915728 1133.886004,1208.384196 1124.430135,1208.199487 1114.579734,1208.004804 1114.593942,1207.391428 1108.671496,1207.275010 1108.568931,1212.359981 1107.102102,1212.327662 1105.174181,1212.287420"/>
    <poly id="122595213" type="building.yes" color="255,230,230" fill="1" layer="-1.00" shape="1346.494146,1085.055828 1346.763147,1073.524352 1350.252313,1073.594206 1350.162629,1077.675775 1384.557415,1078.467952 1384.388421,1085.895245 1402.802499,1086.314945 1403.524140,1055.389647 1404.211040,1025.847311 1392.731047,1025.579901 1387.958000,1025.471886 1387.881142,1028.895545 1368.455096,1028.440492 1368.531936,1025.016832 1348.111520,1024.548210 1333.380829,1024.203718 1333.369715,1024.560679 1332.708755,1052.954391 1332.692767,1053.690406 1332.506155,1061.798050 1332.353952,1068.333291 1332.215661,1074.065715 1332.156231,1076.797895 1331.969289,1084.716098 1346.494146,1085.055828"/>
    <poly id="122595218" type="building.yes" color="255,230,230" fill="1" layer="-1.00" shape="796.297001,1210.198392 793.371003,1203.447196 780.335723,1201.904135 782.482709,1180.339740 809.280033,1183.046615 807.616361,1199.112906 805.996720,1214.988371 805.925024,1215.714989 805.848128,1216.452913 815.869551,1217.499536 817.802346,1217.695495 818.218413,1214.305784 822.130816,1214.774253 824.502446,1190.439096 827.086342,1190.681594 827.233762,1187.578881 827.555574,1184.548732 825.212615,1184.198412 828.853599,1148.411883 831.354317,1148.656982 831.683741,1145.336845 831.932106,1142.799339 829.542673,1142.561909 829.944631,1136.052244 841.207087,1137.182781 842.265539,1137.116301 843.128090,1136.821909 843.753825,1136.234014 844.282465,1135.381689 844.435959,1134.251325 848.203161,1134.512617 848.735689,1130.227734 842.795365,1129.543940 843.988256,1119.911476 775.333465,1113.051001 775.139109,1114.472397 774.032946,1126.342183 771.432359,1126.100242 770.692506,1126.056490 762.316633,1212.162611 762.951423,1212.220787 769.791289,1212.909776 776.291742,1213.575948 792.097706,1215.121601 792.726601,1215.168822 793.965264,1214.650927 794.917553,1214.030535 795.694740,1213.137005 796.256638,1212.283633 796.364015,1211.277294 796.297001,1210.198392"/>
    <poly id="122595236" type="building.retail" color="255,230,230" fill="1" layer="-1.00" shape="759.928896,1243.965003 759.210160,1249.927366 755.566237,1285.948125 760.100849,1286.252206 760.008869,1288.461650 758.920735,1289.353760 761.390804,1292.352404 763.745062,1295.198649 764.973934,1294.190700 814.782531,1299.143059 815.809508,1300.381434 821.607281,1295.620071 820.741875,1294.577246 820.899063,1292.321192 825.489823,1292.645889 829.995088,1247.025395 825.671220,1246.714644 825.560424,1244.411238 826.702318,1243.461749 824.382405,1240.647825 821.883580,1237.616604 821.028735,1238.512553 818.893479,1238.233762 819.140621,1233.879774 777.453394,1229.788026 776.194206,1239.779211 774.642253,1241.287597 773.002886,1242.308366 770.360475,1239.125644 767.267959,1241.618285 769.948175,1244.944699 759.928896,1243.965003"/>
    <poly id="122595238" type="building.retail" color="255,230,230" fill="1" layer="-1.00" shape="791.170330,1081.263156 803.198447,1082.013052 812.242874,1082.878452 850.870666,1086.564680 852.024491,1086.706967 852.184177,1084.885466 854.633479,1060.715085 855.180172,1055.460210 855.740033,1050.093482 858.190695,1024.719483 832.770943,1007.125019 827.754855,1003.682037 826.808110,1005.015478 803.277661,1037.968385 800.506119,1041.855144 783.424365,1066.861522 782.424736,1069.522798 782.337996,1072.434165 782.956409,1074.989177 784.191933,1077.391180 786.344445,1079.463646 788.833178,1080.745511 791.170330,1081.263156"/>
    <poly id="122595238#1" type="landuse.retail" color="194,194,130" fill="1" layer="-3.00" shape="791.170330,1081.263156 803.198447,1082.013052 812.242874,1082.878452 850.870666,1086.564680 852.024491,1086.706967 852.184177,1084.885466 854.633479,1060.715085 855.180172,1055.460210 855.740033,1050.093482 858.190695,1024.719483 832.770943,1007.125019 827.754855,1003.682037 826.808110,1005.015478 803.277661,1037.968385 800.506119,1041.855144 783.424365,1066.861522 782.424736,1069.522798 782.337996,1072.434165 782.956409,1074.989177 784.191933,1077.391180 786.344445,1079.463646 788.833178,1080.745511 791.170330,1081.263156"/>
    <poly id="122595238#2" type="shop.department_store" color="237,199,255" fill="1" layer="-1.00" shape="791.170330,1081.263156 803.198447,1082.013052 812.242874,1082.878452 850.870666,1086.564680 852.024491,1086.706967 852.184177,1084.885466 854.633479,1060.715085 855.180172,1055.460210 855.740033,1050.093482 858.190695,1024.719483 832.770943,1007.125019 827.754855,1003.682037 826.808110,1005.015478 803.277661,1037.968385 800.506119,1041.855144 783.424365,1066.861522 782.424736,1069.522798 782.337996,1072.434165 782.956409,1074.989177 784.191933,1077.391180 786.344445,1079.463646 788.833178,1080.745511 791.170330,1081.263156"/>
    <poly id="122595241" type="building.retail" color="255,230,230" fill="1" layer="-1.00" shape="1048.728619,844.881808 1049.078515,829.737021 1049.518053,805.707479 1050.639154,734.761726 1045.899682,734.675383 1017.651113,734.140438 1004.617003,753.347070 981.386617,786.411920 958.732547,818.890606 980.728578,834.051828 988.932925,839.836207 992.114821,840.728841 994.160438,839.550640 997.278185,840.344980 1000.319654,841.186278 1001.845996,843.478987 1004.772693,844.201280 1048.728619,844.881808"/>
    <poly id="122595241#1" type="shop.department_store" color="237,199,255" fill="1" layer="-1.00" shape="1048.728619,844.881808 1049.078515,829.737021 1049.518053,805.707479 1050.639154,734.761726 1045.899682,734.675383 1017.651113,734.140438 1004.617003,753.347070 981.386617,786.411920 958.732547,818.890606 980.728578,834.051828 988.932925,839.836207 992.114821,840.728841 994.160438,839.550640 997.278185,840.344980 1000.319654,841.186278 1001.845996,843.478987 1004.772693,844.201280 1048.728619,844.881808"/>
    <poly id="122595243" type="building.public" color="255,230,230" fill="1" layer="-1.00" shape="927.312996,869.061358 923.933634,871.094737 924.325114,871.717747 919.807508,874.288131 922.363060,878.599244 917.209967,881.802391 920.315808,887.021308 919.809629,887.527447 924.763636,895.920546 925.528123,895.506648 928.812165,900.920609 938.175293,895.257003 942.694419,902.705283 940.142666,904.211342 941.870832,906.921213 943.610091,909.630739 945.786023,908.537598 947.005868,910.616959 947.523854,910.489361 947.874063,911.035650 948.444771,911.352178 949.357328,911.412869 960.192565,904.700422 960.319749,895.602742 958.451500,892.496038 957.796601,893.575167 953.277496,886.126869 961.708745,881.027314 950.854250,863.089257 950.268942,862.126817 944.851257,865.393897 942.198986,861.007776 937.953183,863.569658 937.549221,862.902459 934.306452,864.864702 930.741247,866.993025 927.312996,869.061358"/>
    <poly id="122595247" type="amenity.library" color="237,199,199" fill="1" layer="-1.00" shape="1458.256590,1023.589184 1463.430306,1024.977576 1463.262791,1033.352068 1494.190934,1033.896319 1494.647140,1009.777270 1495.102671,985.635954 1464.211225,985.034819 1464.042301,993.543085 1458.951874,994.659548 1455.100823,996.885385 1452.104673,999.998502 1450.047341,1003.840273 1449.078541,1009.119275 1449.539663,1013.061145 1451.387209,1017.483739 1453.825305,1020.539547 1458.256590,1023.589184"/>
    <poly id="122595247#1" type="building.public" color="255,230,230" fill="1" layer="-1.00" shape="1458.256590,1023.589184 1463.430306,1024.977576 1463.262791,1033.352068 1494.190934,1033.896319 1494.647140,1009.777270 1495.102671,985.635954 1464.211225,985.034819 1464.042301,993.543085 1458.951874,994.659548 1455.100823,996.885385 1452.104673,999.998502 1450.047341,1003.840273 1449.078541,1009.119275 1449.539663,1013.061145 1451.387209,1017.483739 1453.825305,1020.539547 1458.256590,1023.589184"/>
    <poly id="122595249" type="landuse.commercial" color="209,209,204" fill="1" layer="-3.00" shape="849.866872,982.374774 886.960550,1008.576160 898.202850,1008.693388 908.300669,1008.790639 910.000570,1008.815609 911.750049,1008.827888 919.343262,1008.914163 928.746972,1009.010837 955.126119,1009.670182 962.302932,1009.758388 970.940762,1009.867912 988.744452,1010.103990 1043.765239,1010.796006 1045.600005,1010.872557 1045.710698,1000.170629 1046.240231,990.079727 1046.378801,954.614413 1047.124527,920.634655 1047.237034,912.484705 1048.247726,862.772162 1006.122002,862.190613 985.196777,861.951450 964.010117,861.698270 962.237330,861.474949 953.639363,861.230457 929.215357,860.799839 894.692053,910.064746 892.685104,913.013737 888.177763,917.690109 878.531373,931.709745 870.446491,943.451819 862.797433,954.567374 858.452566,960.888067 848.242069,976.218138 847.767847,977.213638 847.486058,978.325718 847.521857,979.472460 848.038189,980.537336 848.609632,981.411038 849.866872,982.374774"/>
    <poly id="122595277" type="amenity.restaurant" color="237,199,199" fill="1" layer="-1.00" shape="880.396844,1139.324985 869.828655,1154.387574 876.670956,1158.888030 878.401845,1156.883758 882.977488,1156.896966 888.780075,1156.905321 898.321392,1156.975318 899.919605,1156.412808 901.042473,1155.385928 901.909806,1153.999261 902.458837,1152.020737 902.492346,1139.571543 880.396844,1139.324985"/>
    <poly id="122595277#1" type="building.yes" color="255,230,230" fill="1" layer="-1.00" shape="880.396844,1139.324985 869.828655,1154.387574 876.670956,1158.888030 878.401845,1156.883758 882.977488,1156.896966 888.780075,1156.905321 898.321392,1156.975318 899.919605,1156.412808 901.042473,1155.385928 901.909806,1153.999261 902.458837,1152.020737 902.492346,1139.571543 880.396844,1139.324985"/>
    <poly id="122595279" type="building.yes" color="255,230,230" fill="1" layer="-1.00" shape="1158.370358,847.005490 1177.213212,847.421904 1182.268737,847.498573 1183.652497,847.533513 1196.306739,847.685737 1199.318763,844.549626 1200.508469,793.026282 1182.696157,792.722537 1181.762485,829.271230 1179.800702,831.182233 1177.428432,831.144631 1175.050268,831.096070 1172.992852,829.042708 1173.825886,792.474854 1164.794732,792.232200 1159.598013,792.081937 1159.338180,803.891765 1158.928103,826.393588 1158.876067,829.002958 1158.370358,847.005490"/>
    <poly id="122595282" type="building.yes" color="255,230,230" fill="1" layer="-1.00" shape="1157.297438,736.733304 1156.898223,747.455337 1159.670673,747.502758 1159.017309,786.806506 1164.871427,787.025458 1164.794732,792.232200 1173.825886,792.474854 1174.828255,750.641656 1177.159664,750.613665 1177.128144,748.708984 1179.355534,748.728809 1181.588472,748.748463 1181.569367,750.632432 1183.769710,750.675390 1182.698647,789.234316 1182.696157,792.722537 1200.508469,793.026282 1200.658336,789.455466 1201.207426,764.987951 1201.881430,737.574475 1179.784648,737.181179 1157.297438,736.733304"/>
    <poly id="122595284" type="building.university" color="255,230,230" fill="1" layer="-1.00" shape="1368.234868,1051.370972 1387.548811,1051.796070 1387.467088,1055.420476 1387.393025,1058.576588 1370.034847,1058.191011 1369.936444,1062.707473 1346.521799,1062.187046 1346.603135,1058.551505 1346.702549,1054.068442 1346.813434,1049.061244 1368.277629,1049.530849 1368.234868,1051.370972"/>
    <poly id="122872076" type="building.apartments" color="255,230,230" fill="1" layer="-1.00" shape="1373.556325,1279.238426 1364.143181,1263.449881 1329.583005,1262.819127 1328.725333,1291.308125 1343.051428,1291.531400 1343.527320,1280.049208 1356.190089,1280.346532 1360.473260,1287.211968 1373.556325,1279.238426"/>
    <poly id="122876607" type="building.university" color="255,230,230" fill="1" layer="-1.00" shape="1432.039433,1295.196354 1432.280912,1279.018612 1432.380318,1271.136572 1434.416369,1271.084473 1434.387954,1266.415934 1434.452426,1262.056547 1432.775881,1262.064046 1432.852480,1253.268890 1432.986043,1238.621257 1473.391782,1239.394663 1474.952888,1239.424200 1474.607276,1254.758205 1482.364582,1254.963115 1482.768806,1239.727590 1484.457837,1239.764303 1484.642213,1232.826888 1484.597622,1231.390671 1484.818112,1223.828059 1426.709545,1222.456527 1426.523372,1231.656279 1418.947662,1231.579574 1418.179285,1266.540530 1417.528237,1295.089925 1416.009094,1295.159408 1415.902424,1298.517128 1415.712923,1301.531951 1424.876613,1301.615034 1424.703273,1311.048417 1482.438460,1312.420309 1482.487142,1310.769456 1482.622786,1305.839508 1482.661050,1304.389575 1482.877389,1296.515053 1481.355135,1296.484308 1481.662951,1281.363217 1474.233312,1281.159281 1473.796911,1296.250934 1471.675252,1296.227660 1432.039433,1295.196354"/>
    <poly id="122876625" type="landuse.residential" color="235,235,227" fill="1" layer="-3.00" shape="1652.661566,1323.331539 1652.544639,1331.737875 1651.655400,1352.482472 1651.600258,1360.374260 1651.320093,1368.529341 1651.237675,1373.034144 1651.043880,1383.437672 1650.696424,1402.315541 1650.472251,1414.425070 1650.905581,1414.433924 1661.404645,1414.621059 1664.271208,1414.677068 1677.443809,1414.424755 1685.933942,1414.640799 1704.619444,1415.098109 1707.051295,1415.100757 1722.045183,1415.393952 1723.851641,1415.460566 1743.193327,1416.131769 1764.480902,1416.352757 1774.129894,1416.700273 1789.756422,1416.985295 1805.382944,1417.270384 1806.682929,1417.296999 1811.771591,1417.395766 1811.787324,1416.648620 1812.172620,1392.331279 1812.487118,1378.279901 1812.533596,1376.194504 1812.622411,1373.862625 1812.712982,1371.408106 1813.007408,1355.273393 1813.368876,1338.434523 1813.426986,1335.290071 1813.435386,1334.844045 1813.457452,1333.584072 1813.562715,1324.609766 1813.605405,1322.401901 1813.633427,1320.796275 1813.925232,1307.804297 1814.301793,1291.990224 1814.355235,1289.770882 1813.027471,1289.745122 1803.277934,1289.567765 1800.155780,1289.508413 1777.667324,1289.079205 1766.639936,1288.874653 1766.721441,1284.514761 1766.812031,1279.731109 1766.975014,1271.189633 1767.194981,1259.826919 1778.450568,1260.046697 1814.905110,1260.723330 1814.314174,1252.216344 1814.446523,1245.013122 1814.706616,1231.175172 1814.723418,1230.283120 1796.929351,1229.953628 1768.018299,1229.221839 1751.347079,1229.114110 1735.302026,1228.608156 1734.857581,1228.599636 1718.831176,1228.516656 1709.542548,1228.347549 1702.787119,1228.222553 1695.270722,1228.087719 1672.993670,1227.686017 1657.460606,1227.398562 1656.888580,1227.394007 1655.250507,1227.389067 1655.289114,1228.992631 1655.281447,1229.282618 1655.085826,1234.972212 1655.051954,1236.745186 1654.923044,1238.855432 1654.274685,1256.984818 1654.100226,1265.147764 1653.810945,1278.919791 1653.633434,1286.625920 1653.365455,1296.786574 1652.984580,1311.185515 1652.661566,1323.331539"/>
    <poly id="122876637" type="building.apartments" color="255,230,230" fill="1" layer="-1.00" shape="1863.009387,1215.148202 1863.194736,1201.580037 1863.345596,1190.665246 1863.459209,1182.314763 1857.715679,1182.236176 1857.654176,1186.528577 1856.654338,1186.514940 1856.475761,1199.224798 1847.705016,1199.106177 1847.837918,1189.406652 1849.621260,1189.440616 1849.723956,1181.814838 1847.024664,1181.786933 1833.871083,1181.603391 1833.453795,1212.429890 1833.420080,1214.748918 1834.419911,1214.762548 1863.009387,1215.148202"/>
    <poly id="122876640" type="building.apartments" color="255,230,230" fill="1" layer="-1.00" shape="1707.994062,1197.905084 1701.365467,1197.753869 1701.358060,1198.589912 1675.148760,1197.975719 1674.977758,1203.385943 1673.460838,1204.603098 1670.353841,1204.677114 1670.659300,1187.483330 1671.065267,1187.504179 1672.876952,1185.765255 1675.523193,1185.872686 1675.471122,1186.342355 1682.110861,1186.314871 1682.249681,1180.582464 1673.918144,1180.305771 1656.465613,1180.077806 1656.278832,1186.948408 1655.631127,1212.622379 1656.292251,1212.635316 1681.833405,1213.192069 1698.566392,1213.498167 1709.247692,1213.635238 1709.761109,1197.950628 1707.994062,1197.905084"/>
    <poly id="122876641" type="building.yes" color="255,230,230" fill="1" layer="-1.00" shape="1770.470245,1176.980085 1770.425250,1172.479237 1767.819849,1168.670612 1769.248812,1167.121896 1773.199993,1167.233562 1773.361254,1164.910583 1800.658998,1165.525221 1801.975458,1166.977780 1801.801418,1170.861335 1801.164199,1170.903351 1801.059981,1175.966025 1801.665985,1175.991840 1801.675783,1179.357072 1798.254718,1179.150954 1798.168696,1177.448561 1770.470245,1176.980085"/>
    <poly id="122876644" type="building.apartments" color="255,230,230" fill="1" layer="-1.00" shape="1744.433156,1188.919530 1744.276732,1197.850851 1751.585503,1198.092517 1749.700893,1202.497115 1744.756150,1202.393964 1742.574123,1198.093043 1741.112507,1198.049165 1741.045255,1195.878136 1739.022357,1195.818214 1738.966542,1197.959623 1736.849346,1197.902623 1734.957338,1200.992447 1721.844702,1200.874906 1720.225140,1197.704420 1718.170686,1197.701207 1718.355105,1195.589246 1715.958488,1195.474050 1715.902685,1197.615460 1713.628103,1197.496485 1713.892979,1184.003834 1718.115287,1183.906445 1718.127833,1181.264888 1710.165484,1181.255278 1709.761109,1197.950628 1709.247692,1213.635238 1718.396303,1213.764107 1731.509928,1213.915036 1736.738586,1214.042806 1752.753928,1214.304516 1762.049166,1214.506962 1762.487625,1202.669426 1758.769110,1202.539423 1756.927565,1198.116506 1757.958585,1198.240591 1758.043408,1186.458584 1762.926120,1186.530243 1763.023613,1181.969261 1738.860667,1181.636701 1738.707504,1187.625862 1743.068827,1187.535339 1744.433156,1188.919530"/>
    <poly id="122876650" type="building.yes" color="255,230,230" fill="1" layer="-1.00" shape="1863.873151,1152.268473 1863.702258,1164.510036 1863.459209,1182.314763 1863.345596,1190.665246 1893.524099,1191.079986 1893.623332,1183.877798 1893.699399,1178.080489 1869.519833,1177.747582 1869.687642,1165.405817 1888.806708,1165.661251 1888.709893,1172.941374 1893.953514,1173.013186 1894.056304,1165.387411 1894.229474,1152.677729 1880.581767,1152.498157 1863.873151,1152.268473"/>
    <poly id="122876659" type="building.apartments" color="255,230,230" fill="1" layer="-1.00" shape="1710.643885,1165.694341 1711.088226,1148.496266 1705.485031,1148.469288 1657.167030,1147.359054 1657.138474,1150.736624 1656.465613,1180.077806 1673.918144,1180.305771 1674.384185,1165.246693 1705.084058,1165.632588 1710.643885,1165.694341"/>
    <poly id="122885437" type="building.block" color="255,230,230" fill="1" layer="-1.00" shape="607.728448,1101.830606 608.926723,1100.021173 613.349282,1102.947501 620.011366,1107.352834 622.770288,1109.105341 621.577208,1110.903462 622.310852,1113.588578 624.831216,1115.170240 626.134792,1115.129463 627.499037,1115.075645 635.605558,1102.819670 647.197153,1085.350632 648.146574,1083.927902 646.502029,1082.831471 618.703697,1063.774938 617.534852,1062.975679 615.318862,1066.332570 601.005678,1088.032543 601.283706,1094.966746 604.022547,1096.786734 601.619757,1100.383509 603.948801,1102.238607 605.341199,1100.244791 607.728448,1101.830606"/>
    <poly id="122886603" type="building.public" color="255,230,230" fill="1" layer="-1.00" shape="678.014530,950.566285 632.915725,1015.755370 643.465585,1023.025825 688.558925,957.837045 684.450049,955.001115 678.014530,950.566285"/>
    <poly id="122886629" type="building.retail" color="255,230,230" fill="1" layer="-1.00" shape="561.422060,964.399218 569.930048,950.949245 591.771409,916.587726 574.730779,905.798308 579.424924,898.407624 572.915719,894.287317 569.263912,900.029466 571.552466,901.473476 570.658147,902.883356 569.688256,904.362466 559.581476,897.780429 538.816373,883.675286 525.894521,875.331498 513.154312,867.115798 501.271592,859.508517 499.010871,863.034042 494.309867,860.094268 487.883391,856.138679 490.339603,852.294984 479.511990,845.401399 479.211694,845.210206 466.429336,837.073990 463.973137,840.917700 457.182483,836.683816 452.318091,833.671202 454.497570,829.680131 443.620526,822.453865 437.681800,818.650244 432.488947,815.257893 429.378950,819.679326 412.543853,845.783044 411.865864,846.829567 415.826308,849.524979 414.201012,852.061092 411.294619,856.598751 408.790308,860.499731 420.570583,868.020776 427.858824,872.539898 439.501696,879.931574 463.580649,895.046805 464.696515,895.747379 474.768041,901.906782 476.597527,903.053071 498.868892,917.021547 511.790669,925.365239 494.835376,950.291045 521.024377,967.201652 548.534878,984.650577 561.422060,964.399218"/>
    <poly id="122886629#1" type="shop.mall" color="237,199,255" fill="1" layer="-1.00" shape="561.422060,964.399218 569.930048,950.949245 591.771409,916.587726 574.730779,905.798308 579.424924,898.407624 572.915719,894.287317 569.263912,900.029466 571.552466,901.473476 570.658147,902.883356 569.688256,904.362466 559.581476,897.780429 538.816373,883.675286 525.894521,875.331498 513.154312,867.115798 501.271592,859.508517 499.010871,863.034042 494.309867,860.094268 487.883391,856.138679 490.339603,852.294984 479.511990,845.401399 479.211694,845.210206 466.429336,837.073990 463.973137,840.917700 457.182483,836.683816 452.318091,833.671202 454.497570,829.680131 443.620526,822.453865 437.681800,818.650244 432.488947,815.257893 429.378950,819.679326 412.543853,845.783044 411.865864,846.829567 415.826308,849.524979 414.201012,852.061092 411.294619,856.598751 408.790308,860.499731 420.570583,868.020776 427.858824,872.539898 439.501696,879.931574 463.580649,895.046805 464.696515,895.747379 474.768041,901.906782 476.597527,903.053071 498.868892,917.021547 511.790669,925.365239 494.835376,950.291045 521.024377,967.201652 548.534878,984.650577 561.422060,964.399218"/>
    <poly id="122886631" type="building.hotel" color="255,230,230" fill="1" layer="-1.00" shape="593.568646,896.471750 602.332058,902.182072 611.082929,907.669921 632.775697,921.267237 637.581419,923.122908 641.713969,923.517447 645.096177,923.534261 648.763323,923.074108 649.515915,922.103307 651.751275,917.408522 654.447495,913.245397 656.677479,909.798944 660.592183,903.758914 667.065181,893.760685 641.273078,877.104095 636.790560,883.986581 647.037239,890.074103 633.652143,902.773723 619.526363,893.921200 601.549165,882.659459 610.961178,867.565392 623.073492,875.065538 626.117670,869.777080 626.999446,870.273282 628.337127,867.946862 626.173011,866.220318 602.468513,849.743866 579.554011,887.448734 593.568646,896.471750"/>
    <poly id="122886734" type="building.civic" color="255,230,230" fill="1" layer="-1.00" shape="555.539305,1137.119546 552.009261,1137.163171 550.180163,1141.878746 549.482705,1146.737210 549.492022,1150.760015 550.159088,1155.219149 551.718562,1159.806370 553.660024,1164.002728 556.600620,1168.011793 559.587507,1171.016424 563.598820,1173.754964 567.767103,1176.009390 572.395004,1177.692221 577.099055,1178.614861 581.129713,1178.778479 585.658504,1178.536462 590.451265,1160.823060 590.884739,1159.238149 593.543443,1160.982624 596.174408,1162.727969 613.423643,1135.497688 606.053639,1135.795124 555.539305,1137.119546"/>
    <poly id="122886734#1" type="landuse.civil" color="194,194,130" fill="1" layer="-3.00" shape="555.539305,1137.119546 552.009261,1137.163171 550.180163,1141.878746 549.482705,1146.737210 549.492022,1150.760015 550.159088,1155.219149 551.718562,1159.806370 553.660024,1164.002728 556.600620,1168.011793 559.587507,1171.016424 563.598820,1173.754964 567.767103,1176.009390 572.395004,1177.692221 577.099055,1178.614861 581.129713,1178.778479 585.658504,1178.536462 590.451265,1160.823060 590.884739,1159.238149 593.543443,1160.982624 596.174408,1162.727969 613.423643,1135.497688 606.053639,1135.795124 555.539305,1137.119546"/>