<?xml version="1.0" encoding="UTF-8"?>

<!-- generated on Fr 25 Sep 2020 18:22:35 CEST by Eclipse SUMO netedit Version 1.7.0
<configuration xmlns:xsi="http://www.w3.org/2001/XMLSchema-instance" xsi:noNamespaceSchemaLocation="http://sumo.dlr.de/xsd/netconvertConfiguration.xsd">

    <input>
        <sumo-net-file value="/home/martin/SUMO_RL/SumoScenarios/helsinki_core/osm.net.xml"/>
    </input>

    <output>
        <output-file value="/home/martin/SUMO_RL/SumoScenarios/helsinki_core/osm.net.xml"/>
        <output.street-names value="true"/>
    </output>

    <processing>
        <geometry.min-radius.fix.railways value="false"/>
        <geometry.max-grade.fix value="false"/>
        <offset.disable-normalization value="true"/>
        <lefthand value="false"/>
    </processing>

    <junctions>
        <no-turnarounds value="true"/>
        <junctions.corner-detail value="5"/>
        <junctions.limit-turn-speed value="5.5"/>
        <rectangular-lane-cut value="false"/>
    </junctions>

    <pedestrian>
        <walkingareas value="false"/>
    </pedestrian>

    <report>
        <aggregate-warnings value="5"/>
    </report>

</configuration>
-->

<net version="1.6" junctionCornerDetail="5" limitTurnSpeed="5.50" xmlns:xsi="http://www.w3.org/2001/XMLSchema-instance" xsi:noNamespaceSchemaLocation="http://sumo.dlr.de/xsd/net_file.xsd">

    <location netOffset="-384798.38,-6671137.75" convBoundary="-387.09,0.00,1930.49,1421.96" origBoundary="24.914235,60.105635,25.407609,60.189319" projParameter="+proj=utm +zone=35 +ellps=WGS84 +datum=WGS84 +units=m +no_defs"/>

    <type id="highway.bridleway" priority="1" numLanes="1" speed="2.78" allow="pedestrian" oneway="1" width="2.00"/>
    <type id="highway.bus_guideway" priority="1" numLanes="1" speed="27.78" allow="bus" oneway="1"/>
    <type id="highway.cycleway" priority="1" numLanes="1" speed="8.33" allow="bicycle" oneway="0" width="1.00"/>
    <type id="highway.footway" priority="1" numLanes="1" speed="2.78" allow="pedestrian" oneway="1" width="2.00"/>
    <type id="highway.ford" priority="1" numLanes="1" speed="2.78" allow="army" oneway="0"/>
    <type id="highway.living_street" priority="2" numLanes="1" speed="2.78" disallow="tram rail_urban rail rail_electric rail_fast ship" oneway="0"/>
    <type id="highway.motorway" priority="14" numLanes="2" speed="39.44" allow="private emergency authority army vip passenger hov taxi bus coach delivery truck trailer motorcycle evehicle custom1 custom2" oneway="1"/>
    <type id="highway.motorway_link" priority="9" numLanes="1" speed="22.22" allow="private emergency authority army vip passenger hov taxi bus coach delivery truck trailer motorcycle evehicle custom1 custom2" oneway="1"/>
    <type id="highway.path" priority="1" numLanes="1" speed="2.78" allow="pedestrian bicycle" oneway="1" width="2.00"/>
    <type id="highway.pedestrian" priority="1" numLanes="1" speed="2.78" allow="pedestrian" oneway="1" width="2.00"/>
    <type id="highway.primary" priority="12" numLanes="2" speed="27.78" disallow="tram rail_urban rail rail_electric rail_fast ship" oneway="0"/>
    <type id="highway.primary_link" priority="7" numLanes="1" speed="22.22" disallow="tram rail_urban rail rail_electric rail_fast ship" oneway="0"/>
    <type id="highway.raceway" priority="15" numLanes="2" speed="83.33" allow="vip" oneway="0"/>
    <type id="highway.residential" priority="3" numLanes="1" speed="13.89" disallow="tram rail_urban rail rail_electric rail_fast ship" oneway="0"/>
    <type id="highway.secondary" priority="11" numLanes="1" speed="27.78" disallow="tram rail_urban rail rail_electric rail_fast ship" oneway="0"/>
    <type id="highway.secondary_link" priority="6" numLanes="1" speed="22.22" disallow="tram rail_urban rail rail_electric rail_fast ship" oneway="0"/>
    <type id="highway.service" priority="1" numLanes="1" speed="5.56" allow="pedestrian delivery bicycle" oneway="0"/>
    <type id="highway.stairs" priority="1" numLanes="1" speed="1.39" allow="pedestrian" oneway="1" width="2.00"/>
    <type id="highway.step" priority="1" numLanes="1" speed="1.39" allow="pedestrian" oneway="1" width="2.00"/>
    <type id="highway.steps" priority="1" numLanes="1" speed="1.39" allow="pedestrian" oneway="1" width="2.00"/>
    <type id="highway.tertiary" priority="10" numLanes="1" speed="22.22" disallow="tram rail_urban rail rail_electric rail_fast ship" oneway="0"/>
    <type id="highway.tertiary_link" priority="5" numLanes="1" speed="22.22" disallow="tram rail_urban rail rail_electric rail_fast ship" oneway="0"/>
    <type id="highway.track" priority="1" numLanes="1" speed="5.56" allow="pedestrian motorcycle moped bicycle" oneway="0"/>
    <type id="highway.trunk" priority="13" numLanes="2" speed="27.78" disallow="pedestrian bicycle tram rail_urban rail rail_electric rail_fast ship" oneway="0"/>
    <type id="highway.trunk_link" priority="8" numLanes="1" speed="22.22" disallow="pedestrian bicycle tram rail_urban rail rail_electric rail_fast ship" oneway="0"/>
    <type id="highway.unclassified" priority="4" numLanes="1" speed="13.89" disallow="tram rail_urban rail rail_electric rail_fast ship" oneway="0"/>
    <type id="highway.unsurfaced" priority="1" numLanes="1" speed="8.33" disallow="tram rail_urban rail rail_electric rail_fast ship" oneway="0"/>
    <type id="railway.highspeed" priority="21" numLanes="1" speed="69.44" allow="rail_fast" oneway="1"/>
    <type id="railway.light_rail" priority="19" numLanes="1" speed="27.78" allow="rail_urban" oneway="1"/>
    <type id="railway.preserved" priority="16" numLanes="1" speed="27.78" allow="rail" oneway="1"/>
    <type id="railway.rail" priority="20" numLanes="1" speed="44.44" allow="rail" oneway="1"/>
    <type id="railway.subway" priority="18" numLanes="1" speed="27.78" allow="rail_urban" oneway="1"/>
    <type id="railway.tram" priority="17" numLanes="1" speed="13.89" allow="tram" oneway="1"/>

    <edge id=":1005727548_0" function="internal">
        <lane id=":1005727548_0_0" index="0" disallow="tram rail_urban rail rail_electric rail_fast ship" speed="8.33" length="8.17" shape="245.29,200.41 246.42,198.33 246.84,196.72 247.24,195.09 248.31,192.97"/>
        <lane id=":1005727548_0_1" index="1" disallow="tram rail_urban rail rail_electric rail_fast ship" speed="8.33" length="8.17" shape="247.93,202.22 249.07,200.11 249.51,198.48 249.92,196.84 251.00,194.69"/>
        <lane id=":1005727548_0_2" index="2" disallow="tram rail_urban rail rail_electric rail_fast ship" speed="8.33" length="8.17" shape="247.93,202.22 249.50,200.38 250.85,199.35 252.19,198.30 253.70,196.42"/>
    </edge>
    <edge id=":1006156245_0" function="internal">
        <lane id=":1006156245_0_0" index="0" disallow="tram rail_urban rail rail_electric rail_fast ship" speed="11.11" length="7.98" shape="1620.48,292.66 1619.63,294.79 1619.43,296.39 1619.28,298.02 1618.56,300.21"/>
        <lane id=":1006156245_0_1" index="1" disallow="tram rail_urban rail rail_electric rail_fast ship" speed="11.11" length="7.98" shape="1620.48,292.66 1619.17,294.60 1617.97,295.74 1616.82,296.90 1615.64,298.90"/>
        <lane id=":1006156245_0_2" index="2" disallow="tram rail_urban rail rail_electric rail_fast ship" speed="11.11" length="7.98" shape="1617.65,291.16 1616.31,293.16 1615.10,294.33 1613.93,295.53 1612.73,297.59"/>
    </edge>
    <edge id=":1319789483_0" function="internal">
        <lane id=":1319789483_0_0" index="0" disallow="tram rail_urban rail rail_electric rail_fast ship" speed="6.52" length="9.05" shape="1107.02,1193.79 1104.56,1194.06 1102.77,1195.05 1101.66,1196.77 1101.21,1199.21"/>
    </edge>
    <edge id=":1319789483_1" function="internal">
        <lane id=":1319789483_1_0" index="0" disallow="tram rail_urban rail rail_electric rail_fast ship" speed="8.33" length="14.40" shape="1107.02,1193.79 1092.63,1193.29"/>
    </edge>
    <edge id=":1319789483_2" function="internal">
        <lane id=":1319789483_2_0" index="0" disallow="tram rail_urban rail rail_electric rail_fast ship" speed="6.50" length="9.03" shape="1098.02,1199.09 1097.76,1196.62 1096.78,1194.84 1095.07,1193.73 1092.63,1193.29"/>
    </edge>
    <edge id=":1319789483_3" function="internal">
        <lane id=":1319789483_3_0" index="0" disallow="tram rail_urban rail rail_electric rail_fast ship" speed="3.65" length="4.67" shape="1098.02,1199.09 1098.86,1197.92 1099.68,1197.55 1100.46,1197.98 1101.21,1199.21"/>
    </edge>
    <edge id=":1319789487_0" function="internal">
        <lane id=":1319789487_0_0" index="0" disallow="tram rail_urban rail rail_electric rail_fast ship" speed="6.08" length="9.02" shape="1156.68,1197.81 1154.16,1197.56 1152.33,1198.23 1151.20,1199.84 1150.77,1202.38"/>
    </edge>
    <edge id=":1319789487_1" function="internal">
        <lane id=":1319789487_1_0" index="0" disallow="tram rail_urban rail rail_electric rail_fast ship" speed="8.33" length="14.47" shape="1156.68,1197.81 1142.53,1194.77"/>
    </edge>
    <edge id=":1319789487_2" function="internal">
        <lane id=":1319789487_2_0" index="0" disallow="tram rail_urban rail rail_electric rail_fast ship" speed="7.25" length="9.95" shape="1147.57,1202.28 1147.32,1199.40 1146.40,1197.19 1144.80,1195.65 1142.53,1194.77"/>
    </edge>
    <edge id=":1319789487_3" function="internal">
        <lane id=":1319789487_3_0" index="0" disallow="tram rail_urban rail rail_electric rail_fast ship" speed="3.65" length="2.56" shape="1147.57,1202.28 1148.40,1201.11 1149.21,1200.73 1149.41,1200.84"/>
    </edge>
    <edge id=":1319789487_4" function="internal">
        <lane id=":1319789487_4_0" index="0" disallow="tram rail_urban rail rail_electric rail_fast ship" speed="3.65" length="2.12" shape="1149.41,1200.84 1150.00,1201.16 1150.77,1202.38"/>
    </edge>
    <edge id=":1319789488_0" function="internal">
        <lane id=":1319789488_0_0" index="0" disallow="tram rail_urban rail rail_electric rail_fast ship" speed="3.65" length="4.67" shape="1097.60,1312.44 1096.54,1313.42 1095.67,1313.63 1094.99,1313.05 1094.48,1311.70"/>
    </edge>
    <edge id=":1369465861_0" function="internal">
        <lane id=":1369465861_0_0" index="0" disallow="tram rail_urban rail rail_electric rail_fast ship" speed="5.83" length="7.13" shape="1419.30,1054.75 1416.85,1054.86 1415.09,1055.39 1414.02,1056.33 1413.64,1057.69"/>
    </edge>
    <edge id=":1369465861_1" function="internal">
        <lane id=":1369465861_1_0" index="0" disallow="tram rail_urban rail rail_electric rail_fast ship" speed="8.03" length="14.17" shape="1419.30,1054.75 1415.46,1054.07 1412.74,1052.35 1411.15,1049.57 1410.68,1045.75"/>
    </edge>
    <edge id=":1369465861_2" function="internal">
        <lane id=":1369465861_2_0" index="0" disallow="tram rail_urban rail rail_electric rail_fast ship" speed="3.65" length="4.67" shape="1419.30,1054.75 1418.12,1053.93 1417.73,1053.12 1418.15,1052.33 1419.37,1051.55"/>
    </edge>
    <edge id=":1369465861_3" function="internal">
        <lane id=":1369465861_3_0" index="0" disallow="tram rail_urban rail rail_electric rail_fast ship" speed="6.54" length="9.03" shape="1413.88,1045.82 1414.18,1048.25 1415.19,1050.02 1416.92,1051.12 1419.37,1051.55"/>
    </edge>
    <edge id=":1369465861_4" function="internal">
        <lane id=":1369465861_4_0" index="0" disallow="tram rail_urban rail rail_electric rail_fast ship" speed="8.33" length="12.41" shape="1413.88,1045.82 1413.31,1048.91 1412.16,1051.29 1411.01,1053.89 1410.44,1057.63"/>
    </edge>
    <edge id=":1369465861_5" function="internal">
        <lane id=":1369465861_5_0" index="0" disallow="tram rail_urban rail rail_electric rail_fast ship" speed="3.65" length="4.67" shape="1413.88,1045.82 1413.05,1047.00 1412.25,1047.38 1411.45,1046.97 1410.68,1045.75"/>
    </edge>
    <edge id=":1369465868_0" function="internal">
        <lane id=":1369465868_0_0" index="0" disallow="tram rail_urban rail rail_electric rail_fast ship" speed="5.58" length="6.40" shape="1506.70,1057.67 1505.81,1057.99 1505.15,1059.01 1504.72,1060.74 1504.53,1063.19"/>
    </edge>
    <edge id=":1369465868_1" function="internal">
        <lane id=":1369465868_1_0" index="0" disallow="tram rail_urban rail rail_electric rail_fast ship" speed="9.72" length="10.66" shape="1506.70,1057.67 1496.06,1057.09"/>
    </edge>
    <edge id=":1369465868_2" function="internal">
        <lane id=":1369465868_2_0" index="0" disallow="tram rail_urban rail rail_electric rail_fast ship" speed="6.48" length="8.83" shape="1506.82,1054.47 1504.56,1054.03 1502.97,1052.90 1502.03,1051.08 1501.76,1048.57"/>
    </edge>
    <edge id=":1369465868_3" function="internal">
        <lane id=":1369465868_3_0" index="0" disallow="tram rail_urban rail rail_electric rail_fast ship" speed="11.11" length="14.56" shape="1504.96,1048.63 1504.53,1063.19"/>
    </edge>
    <edge id=":1369465868_4" function="internal">
        <lane id=":1369465868_4_0" index="0" disallow="tram rail_urban rail rail_electric rail_fast ship" speed="7.87" length="6.12" shape="1504.96,1048.63 1504.33,1052.54 1503.19,1054.37"/>
    </edge>
    <edge id=":1369465868_5" function="internal">
        <lane id=":1369465868_5_0" index="0" disallow="tram rail_urban rail rail_electric rail_fast ship" speed="3.65" length="2.34" shape="1504.96,1048.63 1504.14,1049.81 1503.33,1050.20"/>
    </edge>
    <edge id=":1369465868_12" function="internal">
        <lane id=":1369465868_12_0" index="0" disallow="tram rail_urban rail rail_electric rail_fast ship" speed="7.87" length="8.03" shape="1503.19,1054.37 1502.64,1055.25 1499.88,1056.77 1496.06,1057.09"/>
    </edge>
    <edge id=":1369465868_13" function="internal">
        <lane id=":1369465868_13_0" index="0" disallow="tram rail_urban rail rail_electric rail_fast ship" speed="3.65" length="2.34" shape="1503.33,1050.20 1502.54,1049.78 1501.76,1048.57"/>
    </edge>
    <edge id=":1369465868_6" function="internal">
        <lane id=":1369465868_6_0" index="0" disallow="tram rail_urban rail rail_electric rail_fast ship" speed="6.35" length="8.82" shape="1496.26,1053.90 1498.62,1053.69 1500.33,1052.74 1501.37,1051.03 1501.76,1048.57"/>
    </edge>
    <edge id=":1369465868_7" function="internal">
        <lane id=":1369465868_7_0" index="0" disallow="tram rail_urban rail rail_electric rail_fast ship" speed="8.07" length="14.07" shape="1496.26,1053.90 1499.97,1054.68 1502.58,1056.49 1504.10,1059.32 1504.53,1063.19"/>
    </edge>
    <edge id=":1369465868_8" function="internal">
        <lane id=":1369465868_8_0" index="0" disallow="tram rail_urban rail rail_electric rail_fast ship" speed="3.65" length="4.67" shape="1496.26,1053.90 1497.40,1054.77 1497.75,1055.60 1497.30,1056.37 1496.06,1057.09"/>
    </edge>
    <edge id=":1369465868_9" function="internal">
        <lane id=":1369465868_9_0" index="0" disallow="tram rail_urban rail rail_electric rail_fast ship" speed="6.58" length="9.00" shape="1501.33,1063.05 1501.06,1060.57 1500.09,1058.75 1498.42,1057.59 1496.06,1057.09"/>
    </edge>
    <edge id=":1369465868_10" function="internal">
        <lane id=":1369465868_10_0" index="0" disallow="tram rail_urban rail rail_electric rail_fast ship" speed="11.11" length="14.49" shape="1501.33,1063.05 1501.76,1048.57"/>
    </edge>
    <edge id=":1369465868_11" function="internal">
        <lane id=":1369465868_11_0" index="0" disallow="tram rail_urban rail rail_electric rail_fast ship" speed="3.65" length="2.34" shape="1501.33,1063.05 1502.18,1061.89 1503.00,1061.52"/>
    </edge>
    <edge id=":1369465868_14" function="internal">
        <lane id=":1369465868_14_0" index="0" disallow="tram rail_urban rail rail_electric rail_fast ship" speed="3.65" length="2.34" shape="1503.00,1061.52 1503.78,1061.95 1504.53,1063.19"/>
    </edge>
    <edge id=":1369465882_0" function="internal">
        <lane id=":1369465882_0_0" index="0" disallow="tram rail_urban rail rail_electric rail_fast ship" speed="3.65" length="4.67" shape="1326.58,1076.91 1325.75,1078.09 1324.94,1078.47 1324.15,1078.05 1323.38,1076.83"/>
    </edge>
    <edge id=":1371700051_0" function="internal">
        <lane id=":1371700051_0_0" index="0" disallow="tram rail_urban rail rail_electric rail_fast ship" speed="3.65" length="4.67" shape="1148.12,1313.40 1147.37,1314.63 1146.58,1315.06 1145.77,1314.69 1144.92,1313.52"/>
    </edge>
    <edge id=":1371708576_0" function="internal">
        <lane id=":1371708576_0_0" index="0" disallow="tram rail_urban rail rail_electric rail_fast ship" speed="6.57" length="9.16" shape="1831.35,1224.18 1828.84,1224.52 1827.04,1225.55 1825.93,1227.30 1825.53,1229.75"/>
    </edge>
    <edge id=":1371708576_1" function="internal">
        <lane id=":1371708576_1_0" index="0" disallow="tram rail_urban rail rail_electric rail_fast ship" speed="8.33" length="14.49" shape="1831.35,1224.18 1816.86,1223.95"/>
    </edge>
    <edge id=":1371708576_2" function="internal">
        <lane id=":1371708576_2_0" index="0" disallow="tram rail_urban rail rail_electric rail_fast ship" speed="7.96" length="14.27" shape="1831.35,1224.18 1827.49,1223.60 1824.78,1221.90 1823.20,1219.09 1822.75,1215.17"/>
    </edge>
    <edge id=":1371708576_3" function="internal">
        <lane id=":1371708576_3_0" index="0" disallow="tram rail_urban rail rail_electric rail_fast ship" speed="3.65" length="4.67" shape="1831.35,1224.18 1830.16,1223.36 1829.77,1222.55 1830.19,1221.76 1831.40,1220.98"/>
    </edge>
    <edge id=":1371708576_4" function="internal">
        <lane id=":1371708576_4_0" index="0" disallow="tram rail_urban rail rail_electric rail_fast ship" speed="6.47" length="9.05" shape="1825.95,1215.27 1826.23,1217.75 1827.23,1219.54 1828.96,1220.61 1831.40,1220.98"/>
    </edge>
    <edge id=":1371708576_5" function="internal">
        <lane id=":1371708576_5_0" index="0" disallow="tram rail_urban rail rail_electric rail_fast ship" speed="8.33" length="14.49" shape="1825.95,1215.27 1825.53,1229.75"/>
    </edge>
    <edge id=":1371708576_6" function="internal">
        <lane id=":1371708576_6_0" index="0" disallow="tram rail_urban rail rail_electric rail_fast ship" speed="8.06" length="14.30" shape="1825.95,1215.27 1825.29,1219.12 1823.56,1221.86 1820.75,1223.46 1816.86,1223.95"/>
    </edge>
    <edge id=":1371708576_7" function="internal">
        <lane id=":1371708576_7_0" index="0" disallow="tram rail_urban rail rail_electric rail_fast ship" speed="3.65" length="4.67" shape="1825.95,1215.27 1825.11,1216.44 1824.30,1216.82 1823.51,1216.39 1822.75,1215.17"/>
    </edge>
    <edge id=":1371708576_8" function="internal">
        <lane id=":1371708576_8_0" index="0" disallow="tram rail_urban rail rail_electric rail_fast ship" speed="6.58" length="9.19" shape="1816.91,1220.75 1819.41,1220.44 1821.21,1219.40 1822.33,1217.65 1822.75,1215.17"/>
    </edge>
    <edge id=":1371708576_9" function="internal">
        <lane id=":1371708576_9_0" index="0" disallow="tram rail_urban rail rail_electric rail_fast ship" speed="8.33" length="14.49" shape="1816.91,1220.75 1831.40,1220.98"/>
    </edge>
    <edge id=":1371708576_10" function="internal">
        <lane id=":1371708576_10_0" index="0" disallow="tram rail_urban rail rail_electric rail_fast ship" speed="8.01" length="14.21" shape="1816.91,1220.75 1820.74,1221.37 1823.46,1223.07 1825.05,1225.87 1825.53,1229.75"/>
    </edge>
    <edge id=":1371708576_11" function="internal">
        <lane id=":1371708576_11_0" index="0" disallow="tram rail_urban rail rail_electric rail_fast ship" speed="3.65" length="4.67" shape="1816.91,1220.75 1818.10,1221.56 1818.49,1222.37 1818.07,1223.16 1816.86,1223.95"/>
    </edge>
    <edge id=":1371708576_12" function="internal">
        <lane id=":1371708576_12_0" index="0" disallow="tram rail_urban rail rail_electric rail_fast ship" speed="6.50" length="9.02" shape="1822.33,1229.65 1822.03,1227.19 1821.02,1225.42 1819.29,1224.34 1816.86,1223.95"/>
    </edge>
    <edge id=":1371708576_13" function="internal">
        <lane id=":1371708576_13_0" index="0" disallow="tram rail_urban rail rail_electric rail_fast ship" speed="8.33" length="14.49" shape="1822.33,1229.65 1822.75,1215.17"/>
    </edge>
    <edge id=":1371708576_14" function="internal">
        <lane id=":1371708576_14_0" index="0" disallow="tram rail_urban rail rail_electric rail_fast ship" speed="8.06" length="14.27" shape="1822.33,1229.65 1822.96,1225.84 1824.68,1223.12 1827.49,1221.50 1831.40,1220.98"/>
    </edge>
    <edge id=":1371708576_15" function="internal">
        <lane id=":1371708576_15_0" index="0" disallow="tram rail_urban rail rail_electric rail_fast ship" speed="3.65" length="4.67" shape="1822.33,1229.65 1823.17,1228.48 1823.98,1228.10 1824.76,1228.52 1825.53,1229.75"/>
    </edge>
    <edge id=":1371708589_0" function="internal">
        <lane id=":1371708589_0_0" index="0" disallow="tram rail_urban rail rail_electric rail_fast ship" speed="3.65" length="4.67" shape="1643.14,1422.03 1642.28,1423.20 1641.47,1423.56 1640.69,1423.12 1639.94,1421.89"/>
    </edge>
    <edge id=":1371713722_0" function="internal">
        <lane id=":1371713722_0_0" index="0" disallow="tram rail_urban rail rail_electric rail_fast ship" speed="9.72" length="0.30" shape="631.34,1238.75 631.46,1238.49"/>
        <lane id=":1371713722_0_1" index="1" disallow="tram rail_urban rail rail_electric rail_fast ship" speed="9.72" length="0.30" shape="634.26,1240.06 634.38,1239.78"/>
    </edge>
    <edge id=":1371748131_0" function="internal">
        <lane id=":1371748131_0_0" index="0" disallow="tram rail_urban rail rail_electric rail_fast ship" speed="8.33" length="11.64" shape="431.25,1114.79 421.64,1108.21"/>
    </edge>
    <edge id=":1371748131_1" function="internal">
        <lane id=":1371748131_1_0" index="0" disallow="tram rail_urban rail rail_electric rail_fast ship" speed="8.33" length="11.27" shape="432.85,1112.02 429.61,1109.89 427.34,1107.83 426.04,1105.84 425.71,1103.91"/>
    </edge>
    <edge id=":1371748756_0" function="internal">
        <lane id=":1371748756_0_0" index="0" disallow="tram rail_urban rail rail_electric rail_fast ship" speed="6.46" length="9.03" shape="431.21,807.78 429.06,806.54 427.05,806.29 425.15,807.04 423.39,808.78"/>
    </edge>
    <edge id=":1371748756_1" function="internal">
        <lane id=":1371748756_1_0" index="0" disallow="tram rail_urban rail rail_electric rail_fast ship" speed="8.33" length="15.23" shape="431.21,807.78 428.37,805.28 425.63,802.59 422.83,799.97 419.84,797.68"/>
    </edge>
    <edge id=":1371748756_2" function="internal">
        <lane id=":1371748756_2_0" index="0" disallow="tram rail_urban rail rail_electric rail_fast ship" speed="3.65" length="4.67" shape="431.21,807.78 430.77,806.41 430.95,805.54 431.76,805.16 433.20,805.27"/>
    </edge>
    <edge id=":1371748756_3" function="internal">
        <lane id=":1371748756_3_0" index="0" disallow="tram rail_urban rail rail_electric rail_fast ship" speed="7.30" length="11.05" shape="430.84,795.71 429.70,798.18 429.71,800.60 430.88,802.96 433.20,805.27"/>
    </edge>
    <edge id=":1371748756_4" function="internal">
        <lane id=":1371748756_4_0" index="0" disallow="tram rail_urban rail rail_electric rail_fast ship" speed="8.33" length="15.05" shape="430.84,795.71 423.39,808.78"/>
    </edge>
    <edge id=":1371748756_5" function="internal">
        <lane id=":1371748756_5_0" index="0" disallow="tram rail_urban rail rail_electric rail_fast ship" speed="7.66" length="12.67" shape="430.84,795.71 428.52,798.20 425.92,799.36 423.03,799.18 419.84,797.68"/>
    </edge>
    <edge id=":1371748756_6" function="internal">
        <lane id=":1371748756_6_0" index="0" disallow="tram rail_urban rail rail_electric rail_fast ship" speed="8.33" length="14.16" shape="424.74,794.27 425.98,797.61 427.91,800.44 430.38,802.93 433.20,805.27"/>
    </edge>
    <edge id=":1371748756_7" function="internal">
        <lane id=":1371748756_7_0" index="0" disallow="tram rail_urban rail rail_electric rail_fast ship" speed="8.33" length="15.01" shape="424.74,794.27 425.49,798.85 425.52,802.79 424.82,806.11 423.39,808.78"/>
    </edge>
    <edge id=":1371748756_8" function="internal">
        <lane id=":1371748756_8_0" index="0" disallow="tram rail_urban rail rail_electric rail_fast ship" speed="5.47" length="9.79" shape="424.74,794.27 425.10,797.39 424.40,799.00 422.65,799.09 419.84,797.68"/>
    </edge>
    <edge id=":1371748756_9" function="internal">
        <lane id=":1371748756_9_0" index="0" disallow="tram rail_urban rail rail_electric rail_fast ship" speed="6.86" length="10.69" shape="420.84,806.85 422.40,804.14 422.75,801.70 421.90,799.55 419.84,797.68"/>
    </edge>
    <edge id=":1371748756_10" function="internal">
        <lane id=":1371748756_10_0" index="0" disallow="tram rail_urban rail rail_electric rail_fast ship" speed="7.96" length="14.28" shape="420.84,806.85 423.63,804.09 426.61,802.91 429.80,803.30 433.20,805.27"/>
    </edge>
    <edge id=":1371748756_11" function="internal">
        <lane id=":1371748756_11_0" index="0" disallow="tram rail_urban rail rail_electric rail_fast ship" speed="3.65" length="4.67" shape="420.84,806.85 422.20,806.38 423.08,806.54 423.48,807.34 423.39,808.78"/>
    </edge>
    <edge id=":1371748760_0" function="internal">
        <lane id=":1371748760_0_0" index="0" disallow="tram rail_urban rail rail_electric rail_fast ship" speed="6.44" length="8.94" shape="305.86,998.43 304.95,1000.62 305.02,1002.60 306.06,1004.37 308.06,1005.93"/>
    </edge>
    <edge id=":1371748760_1" function="internal">
        <lane id=":1371748760_1_0" index="0" disallow="tram rail_urban rail rail_electric rail_fast ship" speed="8.02" length="14.44" shape="303.12,996.77 301.67,1000.29 301.80,1003.47 303.49,1006.33 306.75,1008.87"/>
    </edge>
    <edge id=":1371748760_2" function="internal">
        <lane id=":1371748760_2_0" index="0" disallow="tram rail_urban rail rail_electric rail_fast ship" speed="8.33" length="15.60" shape="303.12,996.77 294.92,1010.04"/>
    </edge>
    <edge id=":1371748760_3" function="internal">
        <lane id=":1371748760_3_0" index="0" disallow="tram rail_urban rail rail_electric rail_fast ship" speed="3.65" length="4.67" shape="303.12,996.77 301.82,997.38 300.93,997.31 300.45,996.55 300.39,995.11"/>
    </edge>
    <edge id=":1371748760_4" function="internal">
        <lane id=":1371748760_4_0" index="0" disallow="tram rail_urban rail rail_electric rail_fast ship" speed="8.33" length="18.39" shape="291.53,998.02 308.06,1005.93"/>
        <lane id=":1371748760_4_1" index="1" disallow="tram rail_urban rail rail_electric rail_fast ship" speed="8.33" length="18.39" shape="290.11,1000.89 306.75,1008.87"/>
    </edge>
    <edge id=":1371748760_6" function="internal">
        <lane id=":1371748760_6_0" index="0" disallow="tram rail_urban rail rail_electric rail_fast ship" speed="7.13" length="11.92" shape="290.11,1000.89 293.44,1002.96 295.35,1005.17 295.84,1007.53 294.92,1010.04"/>
    </edge>
    <edge id=":1371748760_7" function="internal">
        <lane id=":1371748760_7_0" index="0" disallow="tram rail_urban rail rail_electric rail_fast ship" speed="8.33" length="15.55" shape="292.22,1008.34 300.39,995.11"/>
    </edge>
    <edge id=":1371748760_8" function="internal">
        <lane id=":1371748760_8_0" index="0" disallow="tram rail_urban rail rail_electric rail_fast ship" speed="8.33" length="16.10" shape="292.22,1008.34 294.50,1006.18 297.68,1005.55 301.77,1006.45 306.75,1008.87"/>
    </edge>
    <edge id=":1371748760_9" function="internal">
        <lane id=":1371748760_9_0" index="0" disallow="tram rail_urban rail rail_electric rail_fast ship" speed="3.65" length="4.67" shape="292.22,1008.34 293.53,1007.75 294.42,1007.83 294.89,1008.60 294.92,1010.04"/>
    </edge>
    <edge id=":1371750094_0" function="internal">
        <lane id=":1371750094_0_0" index="0" disallow="tram rail_urban rail rail_electric rail_fast ship" speed="7.42" length="11.61" shape="486.22,726.89 483.10,725.40 480.35,725.08 477.97,725.93 475.96,727.96"/>
    </edge>
    <edge id=":1371750094_1" function="internal">
        <lane id=":1371750094_1_0" index="0" disallow="tram rail_urban rail rail_electric rail_fast ship" speed="8.33" length="14.56" shape="486.22,726.89 483.09,724.95 479.97,723.14 476.78,721.49 473.41,720.03"/>
    </edge>
    <edge id=":1371750094_2" function="internal">
        <lane id=":1371750094_2_0" index="0" disallow="tram rail_urban rail rail_electric rail_fast ship" speed="3.65" length="2.34" shape="486.22,726.89 485.52,725.62 485.54,724.72"/>
    </edge>
    <edge id=":1371750094_9" function="internal">
        <lane id=":1371750094_9_0" index="0" disallow="tram rail_urban rail rail_electric rail_fast ship" speed="3.65" length="2.34" shape="485.54,724.72 486.26,724.20 487.70,724.04"/>
    </edge>
    <edge id=":1371750094_3" function="internal">
        <lane id=":1371750094_3_0" index="0" disallow="tram rail_urban rail rail_electric rail_fast ship" speed="6.36" length="8.88" shape="485.91,716.55 484.87,718.68 484.82,720.64 485.76,722.43 487.70,724.04"/>
    </edge>
    <edge id=":1371750094_4" function="internal">
        <lane id=":1371750094_4_0" index="0" disallow="tram rail_urban rail rail_electric rail_fast ship" speed="8.33" length="15.16" shape="485.91,716.55 482.94,720.38 480.39,723.05 478.12,725.32 475.96,727.96"/>
    </edge>
    <edge id=":1371750094_5" function="internal">
        <lane id=":1371750094_5_0" index="0" disallow="tram rail_urban rail rail_electric rail_fast ship" speed="8.16" length="12.11" shape="483.29,714.70 480.80,717.74 478.32,719.64 475.86,720.41 473.41,720.03"/>
    </edge>
    <edge id=":1371750094_6" function="internal">
        <lane id=":1371750094_6_0" index="0" disallow="tram rail_urban rail rail_electric rail_fast ship" speed="8.33" length="14.48" shape="474.94,717.21 487.70,724.04"/>
    </edge>
    <edge id=":1371750094_7" function="internal">