<?xml version="1.0" encoding="UTF-8"?>

<!-- generated on Fri Sep 25 15:00:02 2020 by Eclipse SUMO duarouter Version 1.7.0
<configuration xmlns:xsi="http://www.w3.org/2001/XMLSchema-instance" xsi:noNamespaceSchemaLocation="http://sumo.dlr.de/xsd/duarouterConfiguration.xsd">

    <input>
        <net-file value="/home/martin/SUMO_RL/SumoScenarios/2020-09-25-14-59-47/osm.net.xml"/>
        <route-files value="/home/martin/SUMO_RL/SumoScenarios/2020-09-25-14-59-47/osm.passenger.trips.xml"/>
    </input>

    <output>
        <output-file value="/home/martin/SUMO_RL/SumoScenarios/2020-09-25-14-59-47/osm.passenger.trips.xml.tmp"/>
        <write-trips value="true"/>
    </output>

    <time>
        <begin value="0"/>
        <end value="3600"/>
    </time>

    <report>
        <no-warnings value="true"/>
        <ignore-errors value="true"/>
        <no-step-log value="true"/>
    </report>

</configuration>
-->

<routes xmlns:xsi="http://www.w3.org/2001/XMLSchema-instance" xsi:noNamespaceSchemaLocation="http://sumo.dlr.de/xsd/routes_file.xsd">
    <vType id="veh_passenger" vClass="passenger"/>
    <trip id="veh0" type="veh_passenger" depart="0.00" departLane="best" from="29046083#0" to="-122963283#7"/>
    <trip id="veh1" type="veh_passenger" depart="5.66" departLane="best" from="-81527190" to="-77652491"/>
    <trip id="veh3" type="veh_passenger" depart="16.99" departLane="best" departSpeed="max" from="607816318#0" to="-30156607#1"/>
    <trip id="veh4" type="veh_passenger" depart="22.65" departLane="best" from="126894682#2" to="-123341422#3"/>
    <trip id="veh5" type="veh_passenger" depart="28.32" departLane="best" from="-77652490#1" to="24336603"/>
    <trip id="veh6" type="veh_passenger" depart="33.98" departLane="best" from="-123412757#2" to="-62681941#1"/>
    <trip id="veh7" type="veh_passenger" depart="39.64" departLane="best" departSpeed="max" from="29507724#0" to="26431228#0"/>
    <trip id="veh8" type="veh_passenger" depart="45.31" departLane="best" departSpeed="max" from="-77773364#1" to="28775991#0"/>
    <trip id="veh9" type="veh_passenger" depart="50.97" departLane="best" from="37142649" to="-101156265#0"/>
    <trip id="veh10" type="veh_passenger" depart="56.64" departLane="best" from="37135576" to="30529424"/>
    <trip id="veh11" type="veh_passenger" depart="62.30" departLane="best" departSpeed="max" from="122948203#0" to="-37498324"/>
    <trip id="veh12" type="veh_passenger" depart="67.96" departLane="best" from="8034623#0" to="123403649#0"/>
    <trip id="veh13" type="veh_passenger" depart="73.63" departLane="best" from="37137191#0" to="34328930"/>
    <trip id="veh14" type="veh_passenger" depart="79.29" departLane="best" from="238779011#2" to="82410880#1"/>
    <trip id="veh15" type="veh_passenger" depart="84.95" departLane="best" departSpeed="max" from="41454311" to="29722945"/>
    <trip id="veh16" type="veh_passenger" depart="90.62" departLane="best" from="51707741#0" to="28656019#2"/>
    <trip id="veh17" type="veh_passenger" depart="96.28" departLane="best" from="30471500#0" to="-127809159#1"/>
    <trip id="veh18" type="veh_passenger" depart="101.94" departLane="best" departSpeed="max" from="-282019290" to="-80715863#1"/>
    <trip id="veh19" type="veh_passenger" depart="107.61" departLane="best" from="-314403237#1" to="119613502#0"/>
    <trip id="veh20" type="veh_passenger" depart="113.27" departLane="best" from="28920789" to="126894682#2"/>
    <trip id="veh21" type="veh_passenger" depart="118.93" departLane="best" from="123403647#0" to="-76185025"/>
    <trip id="veh23" type="veh_passenger" depart="130.26" departLane="best" departSpeed="max" from="29507724#0" to="29690379#0"/>
    <trip id="veh24" type="veh_passenger" depart="135.92" departLane="best" from="-60738729#1" to="34328929"/>
    <trip id="veh25" type="veh_passenger" depart="141.59" departLane="best" departSpeed="max" from="-52510928" to="14476103#0"/>
    <trip id="veh26" type="veh_passenger" depart="147.25" departLane="best" departSpeed="max" from="83592300#0" to="30259989#0"/>
    <trip id="veh27" type="veh_passenger" depart="152.91" departLane="best" from="4247504#0" to="377985846"/>
    <trip id="veh28" type="veh_passenger" depart="158.58" departLane="best" departSpeed="max" from="-77790215#1" to="-123412757#3"/>
    <trip id="veh29" type="veh_passenger" depart="164.24" departLane="best" departSpeed="max" from="122595245" to="114554764#2"/>
    <trip id="veh31" type="veh_passenger" depart="175.57" departLane="best" from="58015517#0" to="122964115#0"/>
    <trip id="veh33" type="veh_passenger" depart="186.90" departLane="best" from="26427642#0" to="7921561#0"/>
    <trip id="veh34" type="veh_passenger" depart="192.56" departLane="best" from="123911189#0" to="-77652491"/>
    <trip id="veh35" type="veh_passenger" depart="198.22" departLane="best" from="84235079#1" to="24428858"/>
    <trip id="veh36" type="veh_passenger" depart="203.89" departLane="best" departSpeed="max" from="-29050361#2" to="-129300238#1"/>
    <trip id="veh38" type="veh_passenger" depart="215.21" departLane="best" from="36729028#2" to="17132580#0"/>
    <trip id="veh39" type="veh_passenger" depart="220.88" departLane="best" departSpeed="max" from="-211456308" to="14601901#0"/>
    <trip id="veh40" type="veh_passenger" depart="226.54" departLane="best" from="84235079#0" to="25523727#0"/>
    <trip id="veh42" type="veh_passenger" depart="237.87" departLane="best" departSpeed="max" from="-122963283#10" to="317000783"/>
    <trip id="veh43" type="veh_passenger" depart="243.53" departLane="best" from="30259987#0" to="26427639#0"/>
    <trip id="veh46" type="veh_passenger" depart="260.52" departLane="best" from="166564262" to="81512298#0"/>
    <trip id="veh47" type="veh_passenger" depart="266.18" departLane="best" from="58015517#0" to="-97129661#3"/>
    <trip id="veh48" type="veh_passenger" depart="271.85" departLane="best" from="114846199" to="30259989#0"/>
    <trip id="veh49" type="veh_passenger" depart="277.51" departLane="best" from="28322148#0" to="-37282871#2"/>
    <trip id="veh51" type="veh_passenger" depart="288.84" departLane="best" from="-101155234#1" to="123341419"/>
    <trip id="veh52" type="veh_passenger" depart="294.50" departLane="best" departSpeed="max" from="-123341417#1" to="80715861#1"/>
    <trip id="veh53" type="veh_passenger" depart="300.17" departLane="best" departSpeed="max" from="59802788" to="606105695#0"/>
    <trip id="veh54" type="veh_passenger" depart="305.83" departLane="best" from="119613505#0" to="-194383770#2"/>
    <trip id="veh56" type="veh_passenger" depart="317.16" departLane="best" from="-28321714#0" to="23025219#0"/>
    <trip id="veh57" type="veh_passenger" depart="322.82" departLane="best" departSpeed="max" from="-217647581#1" to="36730360"/>
    <trip id="veh58" type="veh_passenger" depart="328.48" departLane="best" departSpeed="max" from="34144204#0" to="-36729017"/>
    <trip id="veh59" type="veh_passenger" depart="334.15" departLane="best" from="183090995#0" to="26692016"/>
    <trip id="veh61" type="veh_passenger" depart="345.47" departLane="best" from="127104868#0" to="-76334538"/>
    <trip id="veh62" type="veh_passenger" depart="351.14" departLane="best" from="24336395#0" to="34328930"/>
    <trip id="veh63" type="veh_passenger" depart="356.80" departLane="best" departSpeed="max" from="-75629072#1" to="122963283#9"/>
    <trip id="veh64" type="veh_passenger" depart="362.46" departLane="best" from="84235077" to="30263585"/>
    <trip id="veh65" type="veh_passenger" depart="368.13" departLane="best" from="149118540" to="24466500"/>
    <trip id="veh66" type="veh_passenger" depart="373.79" departLane="best" departSpeed="max" from="122946787#0" to="28775417#0"/>
    <trip id="veh67" type="veh_passenger" depart="379.46" departLane="best" departSpeed="max" from="-217647581#1" to="30259739#0"/>
    <trip id="veh68" type="veh_passenger" depart="385.12" departLane="best" departSpeed="max" from="-77790215#1" to="7973163"/>
    <trip id="veh69" type="veh_passenger" depart="390.78" departLane="best" from="51335027" to="-26971289#2"/>
    <trip id="veh70" type="veh_passenger" depart="396.45" departLane="best" departSpeed="max" from="-80251853" to="30287921#0"/>
    <trip id="veh71" type="veh_passenger" depart="402.11" departLane="best" from="77615451#1" to="28408345#0"/>
    <trip id="veh72" type="veh_passenger" depart="407.77" departLane="best" from="175625234#0" to="38156743#0"/>
    <trip id="veh73" type="veh_passenger" depart="413.44" departLane="best" from="37137191#0" to="-60738729#1"/>
    <trip id="veh74" type="veh_passenger" depart="419.10" departLane="best" from="-30284761" to="175625218#1"/>
    <trip id="veh75" type="veh_passenger" depart="424.76" departLane="best" from="127104868#0" to="217189185#0"/>
    <trip id="veh76" type="veh_passenger" depart="430.43" departLane="best" from="30762643#0" to="30288034#5"/>
    <trip id="veh77" type="veh_passenger" depart="436.09" departLane="best" from="81924141#1" to="-314475703#1"/>
    <trip id="veh78" type="veh_passenger" depart="441.75" departLane="best" departSpeed="max" from="124116437" to="123403649#0"/>
    <trip id="veh79" type="veh_passenger" depart="447.42" departLane="best" from="51707741#0" to="-81527190"/>
    <trip id="veh80" type="veh_passenger" depart="453.08" departLane="best" departSpeed="max" from="-75509295" to="193218627#0"/>
    <trip id="veh81" type="veh_passenger" depart="458.74" departLane="best" from="126894682#2" to="119613503"/>
    <trip id="veh82" type="veh_passenger" depart="464.41" departLane="best" from="-80727852#1" to="8055896#0"/>
    <trip id="veh84" type="veh_passenger" depart="475.73" departLane="best" from="89652675#0" to="60753083#2"/>
    <trip id="veh86" type="veh_passenger" depart="487.06" departLane="best" from="4250285#0" to="-41454311"/>
    <trip id="veh87" type="veh_passenger" depart="492.73" departLane="best" from="189654327#0" to="-77465095#1"/>
    <trip id="veh88" type="veh_passenger" depart="498.39" departLane="best" departSpeed="max" from="124116437" to="-197339887#1"/>
    <trip id="veh89" type="veh_passenger" depart="504.05" departLane="best" from="123412757#0" to="86533504"/>
    <trip id="veh91" type="veh_passenger" depart="515.38" departLane="best" from="166564262" to="17132580#0"/>
    <trip id="veh92" type="veh_passenger" depart="521.04" departLane="best" from="8034623#0" to="9776916#0"/>
    <trip id="veh94" type="veh_passenger" depart="532.37" departLane="best" departSpeed="max" from="-46656788" to="122887002#0"/>
    <trip id="veh96" type="veh_passenger" depart="543.70" departLane="best" departSpeed="max" from="24336452#0" to="36730338"/>
    <trip id="veh97" type="veh_passenger" depart="549.36" departLane="best" departSpeed="max" from="-199191048#1" to="28775417#0"/>
    <trip id="veh98" type="veh_passenger" depart="555.02" departLane="best" from="21081120#2" to="690485609"/>
    <trip id="veh99" type="veh_passenger" depart="560.69" departLane="best" departSpeed="max" from="-46656788" to="8169088"/>
    <trip id="veh100" type="veh_passenger" depart="566.35" departLane="best" departSpeed="max" from="-282019290" to="-59802789#1"/>
    <trip id="veh102" type="veh_passenger" depart="577.68" departLane="best" from="-78619312#1" to="-344789082"/>
    <trip id="veh104" type="veh_passenger" depart="589.00" departLane="best" from="26692205#0" to="29722945"/>
    <trip id="veh105" type="veh_passenger" depart="594.67" departLane="best" departSpeed="max" from="126894681" to="28775417#0"/>
    <trip id="veh106" type="veh_passenger" depart="600.33" departLane="best" from="22906936#0" to="81152595#2"/>
    <trip id="veh107" type="veh_passenger" depart="606.00" departLane="best" departSpeed="max" from="-75629072#1" to="310792148"/>
    <trip id="veh108" type="veh_passenger" depart="611.66" departLane="best" departSpeed="max" from="-80251853" to="15240373#0"/>
    <trip id="veh109" type="veh_passenger" depart="617.32" departLane="best" departSpeed="max" from="30156607#0" to="122948858#0"/>
    <trip id="veh111" type="veh_passenger" depart="628.65" departLane="best" from="89652675#0" to="9776916#0"/>
    <trip id="veh113" type="veh_passenger" depart="639.98" departLane="best" departSpeed="max" from="59802788" to="75629074#2"/>
    <trip id="veh114" type="veh_passenger" depart="645.64" departLane="best" from="123342339#0" to="-37498324"/>
    <trip id="veh115" type="veh_passenger" depart="651.30" departLane="best" departSpeed="max" from="4236417#0" to="307563434#0"/>
    <trip id="veh116" type="veh_passenger" depart="656.97" departLane="best" from="28323250" to="86533504"/>
    <trip id="veh117" type="veh_passenger" depart="662.63" departLane="best" from="29690379#0" to="-101156265#0"/>
    <trip id="veh118" type="veh_passenger" depart="668.29" departLane="best" from="37934893#0" to="122948858#0"/>
    <trip id="veh120" type="veh_passenger" depart="679.62" departLane="best" from="-37293912#0" to="-333061574#1"/>
    <trip id="veh121" type="veh_passenger" depart="685.28" departLane="best" from="-328813503#2" to="26971289#0"/>
    <trip id="veh123" type="veh_passenger" depart="696.61" departLane="best" from="30528384#0" to="-75509305#1"/>
    <trip id="veh125" type="veh_passenger" depart="707.94" departLane="best" from="194383770#0" to="7973163"/>
    <trip id="veh126" type="veh_passenger" depart="713.60" departLane="best" from="127104868#0" to="117164338#0"/>
    <trip id="veh127" type="veh_passenger" depart="719.27" departLane="best" from="-114554779#0" to="37289251"/>
    <trip id="veh128" type="veh_passenger" depart="724.93" departLane="best" from="28920789" to="-827290050#2"/>
    <trip id="veh130" type="veh_passenger" depart="736.26" departLane="best" from="127809159#2" to="-101156265#0"/>
    <trip id="veh131" type="veh_passenger" depart="741.92" departLane="best" from="-26427640#0" to="77615451#0"/>
    <trip id="veh132" type="veh_passenger" depart="747.58" departLane="best" from="62383932#2" to="26431228#0"/>
    <trip id="veh133" type="veh_passenger" depart="753.25" departLane="best" departSpeed="max" from="4236417#0" to="28740215#0"/>
    <trip id="veh134" type="veh_passenger" depart="758.91" departLane="best" from="119613505#0" to="7973125#0"/>
    <trip id="veh135" type="veh_passenger" depart="764.57" departLane="best" from="36730335#1" to="752587619#0"/>
    <trip id="veh136" type="veh_passenger" depart="770.24" departLane="best" from="62212739#0" to="-76185025"/>
    <trip id="veh137" type="veh_passenger" depart="775.90" departLane="best" from="-80727852#1" to="-314642995#0"/>
    <trip id="veh138" type="veh_passenger" depart="781.56" departLane="best" from="35148624#0" to="77615451#1"/>
    <trip id="veh139" type="veh_passenger" depart="787.23" departLane="best" from="124143108#0" to="29722945"/>
    <trip id="veh140" type="veh_passenger" depart="792.89" departLane="best" departSpeed="max" from="-46656788" to="80715861#3"/>
    <trip id="veh141" type="veh_passenger" depart="798.55" departLane="best" from="37289251" to="77615451#0"/>
    <trip id="veh142" type="veh_passenger" depart="804.22" departLane="best" from="-123341422#3" to="36726220#2"/>
    <trip id="veh143" type="veh_passenger" depart="809.88" departLane="best" departSpeed="max" from="122946787#0" to="80715861#3"/>
    <trip id="veh144" type="veh_passenger" depart="815.55" departLane="best" from="36730361" to="75509305#2"/>
    <trip id="veh145" type="veh_passenger" depart="821.21" departLane="best" from="37289251" to="114554764#2"/>
    <trip id="veh146" type="veh_passenger" depart="826.87" departLane="best" departSpeed="max" from="36729009" to="-315526580#1"/>
    <trip id="veh147" type="veh_passenger" depart="832.54" departLane="best" from="54818681#1" to="744269187#0"/>
    <trip id="veh148" type="veh_passenger" depart="838.20" departLane="best" departSpeed="max" from="-77773364#1" to="51707741#0"/>
    <trip id="veh150" type="veh_passenger" depart="849.53" departLane="best" departSpeed="max" from="-123341417#1" to="-62382995#1"/>
    <trip id="veh151" type="veh_passenger" depart="855.19" departLane="best" from="122887002#0" to="75509305#2"/>
    <trip id="veh152" type="veh_passenger" depart="860.85" departLane="best" from="80715863#2" to="119613503"/>
    <trip id="veh154" type="veh_passenger" depart="872.18" departLane="best" from="8169088" to="25918667#1"/>
    <trip id="veh155" type="veh_passenger" depart="877.84" departLane="best" from="77615982" to="-333061574#1"/>
    <trip id="veh156" type="veh_passenger" depart="883.51" departLane="best" departSpeed="max" from="80715855" to="114554759#1"/>
    <trip id="veh157" type="veh_passenger" depart="889.17" departLane="best" from="-337207932#1" to="175625234#0"/>
    <trip id="veh158" type="veh_passenger" depart="894.83" departLane="best" from="30762643#0" to="122964115#0"/>
    <trip id="veh159" type="veh_passenger" depart="900.50" departLane="best" from="27265277#0" to="24428858"/>
    <trip id="veh160" type="veh_passenger" depart="906.16" departLane="best" departSpeed="max" from="123813196#0" to="28656019#0"/>
    <trip id="veh161" type="veh_passenger" depart="911.83" departLane="best" departSpeed="max" from="-81152595#2" to="30762646#0"/>
    <trip id="veh162" type="veh_passenger" depart="917.49" departLane="best" from="-101156265#1" to="8055896#2"/>
    <trip id="veh163" type="veh_passenger" depart="923.15" departLane="best" from="24336395#0" to="315526581#2"/>
    <trip id="veh164" type="veh_passenger" depart="928.82" departLane="best" departSpeed="max" from="311975526#0" to="30288034#0"/>
    <trip id="veh165" type="veh_passenger" depart="934.48" departLane="best" from="122964118#0" to="-26427640#0"/>
    <trip id="veh166" type="veh_passenger" depart="940.14" departLane="best" departSpeed="max" from="30001902#0" to="123403647#0"/>
    <trip id="veh167" type="veh_passenger" depart="945.81" departLane="best" departSpeed="max" from="122595245" to="690485607#0"/>
    <trip id="veh168" type="veh_passenger" depart="951.47" departLane="best" from="30528431#0" to="122948858#0"/>
    <trip id="veh169" type="veh_passenger" depart="957.13" departLane="best" from="119613505#1" to="17000556"/>
    <trip id="veh170" type="veh_passenger" depart="962.80" departLane="best" departSpeed="max" from="124116437" to="122886924#0"/>
    <trip id="veh171" type="veh_passenger" depart="968.46" departLane="best" from="-36730336#0" to="17132580#0"/>
    <trip id="veh173" type="veh_passenger" depart="979.79" departLane="best" from="62382995#2" to="29722945"/>
    <trip id="veh174" type="veh_passenger" depart="985.45" departLane="best" departSpeed="max" from="117164342" to="264777229"/>
    <trip id="veh175" type="veh_passenger" depart="991.11" departLane="best" from="-101155234#1" to="122880938#0"/>
    <trip id="veh176" type="veh_passenger" depart="996.78" departLane="best" from="141320984#0" to="28683199#0"/>
    <trip id="veh177" type="veh_passenger" depart="1002.44" departLane="best" from="29690379#0" to="21081120#2"/>
    <trip id="veh179" type="veh_passenger" depart="1013.77" departLane="best" from="183090993" to="7973129#0"/>
    <trip id="veh180" type="veh_passenger" depart="1019.43" departLane="best" from="36730335#1" to="-4250285#7"/>
    <trip id="veh181" type="veh_passenger" depart="1025.10" departLane="best" from="-28321714#0" to="24466499"/>
    <trip id="veh183" type="veh_passenger" depart="1036.42" departLane="best" from="38156033#0" to="36730339"/>
    <trip id="veh184" type="veh_passenger" depart="1042.09" departLane="best" from="30156609#0" to="-77893327#2"/>
    <trip id="veh185" type="veh_passenger" depart="1047.75" departLane="best" from="-75627857#1" to="-122963283#7"/>
    <trip id="veh186" type="veh_passenger" depart="1053.41" departLane="best" departSpeed="max" from="-80251858" to="217847706#2"/>
    <trip id="veh187" type="veh_passenger" depart="1059.08" departLane="best" from="42574049" to="-27193116#5"/>
    <trip id="veh188" type="veh_passenger" depart="1064.74" departLane="best" departSpeed="max" from="126894677" to="30156610#0"/>
    <trip id="veh189" type="veh_passenger" depart="1070.40" departLane="best" from="-75509305#1" to="30528432#0"/>
    <trip id="veh191" type="veh_passenger" depart="1081.73" departLane="best" departSpeed="max" from="30001902#0" to="-101155234#1"/>
    <trip id="veh192" type="veh_passenger" depart="1087.39" departLane="best" from="317000784#0" to="37142649"/>
    <trip id="veh193" type="veh_passenger" depart="1093.06" departLane="best" from="-328813503#2" to="17132580#0"/>
    <trip id="veh194" type="veh_passenger" depart="1098.72" departLane="best" from="-62383932#2" to="81527190"/>
    <trip id="veh195" type="veh_passenger" depart="1104.38" departLane="best" departSpeed="max" from="22565684" to="-149118539"/>
    <trip id="veh196" type="veh_passenger" depart="1110.05" departLane="best" from="-80715861#2" to="690485607#0"/>
    <trip id="veh197" type="veh_passenger" depart="1115.71" departLane="best" from="17000556" to="4250285#8"/>
    <trip id="veh198" type="veh_passenger" depart="1121.37" departLane="best" departSpeed="max" from="30156607#0" to="86533504"/>
    <trip id="veh200" type="veh_passenger" depart="1132.70" departLane="best" from="60753083#2" to="29722945"/>
    <trip id="veh201" type="veh_passenger" depart="1138.37" departLane="best" from="41454600#0" to="264777229"/>
    <trip id="veh202" type="veh_passenger" depart="1144.03" departLane="best" from="183090994" to="-827290050#2"/>
    <trip id="veh203" type="veh_passenger" depart="1149.69" departLane="best" from="-80715861#0" to="30259987#0"/>
    <trip id="veh204" type="veh_passenger" depart="1155.36" departLane="best" departSpeed="max" from="34144204#0" to="24959457"/>
    <trip id="veh205" type="veh_passenger" depart="1161.02" departLane="best" from="28740215#0" to="117164338#0"/>
    <trip id="veh206" type="veh_passenger" depart="1166.68" departLane="best" from="-27193116#9" to="122880932#0"/>
    <trip id="veh208" type="veh_passenger" depart="1178.01" departLane="best" departSpeed="max" from="24336452#0" to="-36730361"/>
    <trip id="veh209" type="veh_passenger" depart="1183.67" departLane="best" from="-77893327#2" to="30528384#0"/>
    <trip id="veh210" type="veh_passenger" depart="1189.34" departLane="best" from="30471501" to="-24336452#2"/>
    <trip id="veh211" type="veh_passenger" depart="1195.00" departLane="best" from="126891363" to="26427722#0"/>
    <trip id="veh212" type="veh_passenger" depart="1200.66" departLane="best" from="126894678#9" to="-75509963#1"/>
    <trip id="veh213" type="veh_passenger" depart="1206.33" departLane="best" departSpeed="max" from="126894681" to="7973163"/>
    <trip id="veh214" type="veh_passenger" depart="1211.99" departLane="best" from="26427642#0" to="30528431#0"/>
    <trip id="veh215" type="veh_passenger" depart="1217.65" departLane="best" from="45150439#0" to="37135576"/>
    <trip id="veh217" type="veh_passenger" depart="1228.98" departLane="best" from="122950927#0" to="36730339"/>
    <trip id="veh218" type="veh_passenger" depart="1234.65" departLane="best" departSpeed="max" from="126894681" to="36730336#1"/>
    <trip id="veh219" type="veh_passenger" depart="1240.31" departLane="best" from="24336508" to="29050361#0"/>
    <trip id="veh220" type="veh_passenger" depart="1245.97" departLane="best" from="149118539" to="-122963283#7"/>
    <trip id="veh221" type="veh_passenger" depart="1251.64" departLane="best" departSpeed="max" from="122946787#0" to="30436421#0"/>
    <trip id="veh222" type="veh_passenger" depart="1257.30" departLane="best" departSpeed="max" from="124116437" to="-41454311"/>
    <trip id="veh223" type="veh_passenger" depart="1262.96" departLane="best" departSpeed="max" from="175625199#0" to="-36729011#0"/>
    <trip id="veh224" type="veh_passenger" depart="1268.63" departLane="best" from="28656022#0" to="-122963283#7"/>
    <trip id="veh225" type="veh_passenger" depart="1274.29" departLane="best" departSpeed="max" from="123813196#0" to="28321714#1"/>
    <trip id="veh226" type="veh_passenger" depart="1279.95" departLane="best" from="-123412757#3" to="30260136#0"/>
    <trip id="veh227" type="veh_passenger" depart="1285.62" departLane="best" from="-377985845#1" to="19705766#0"/>
    <trip id="veh228" type="veh_passenger" depart="1291.28" departLane="best" from="333061574#2" to="14476103#0"/>
    <trip id="veh229" type="veh_passenger" depart="1296.94" departLane="best" from="329750716" to="606105695#0"/>
    <trip id="veh230" type="veh_passenger" depart="1302.61" departLane="best" from="-81152595#1" to="-28920739#1"/>
    <trip id="veh231" type="veh_passenger" depart="1308.27" departLane="best" departSpeed="max" from="-123341417#1" to="26427640#1"/>
    <trip id="veh232" type="veh_passenger" depart="1313.93" departLane="best" from="89652675#0" to="123412757#3"/>
    <trip id="veh233" type="veh_passenger" depart="1319.60" departLane="best" departSpeed="max" from="29507724#0" to="38156742"/>
    <trip id="veh234" type="veh_passenger" depart="1325.26" departLane="best" departSpeed="max" from="29507724#0" to="36730339"/>
    <trip id="veh235" type="veh_passenger" depart="1330.92" departLane="best" from="77893337#2" to="-75384656#1"/>
    <trip id="veh236" type="veh_passenger" depart="1336.59" departLane="best" departSpeed="max" from="-123341417#1" to="-37282871#2"/>
    <trip id="veh237" type="veh_passenger" depart="1342.25" departLane="best" from="-36730335#0" to="30287921#0"/>
    <trip id="veh238" type="veh_passenger" depart="1347.92" departLane="best" departSpeed="max" from="24673382" to="-77652490#1"/>
    <trip id="veh240" type="veh_passenger" depart="1359.24" departLane="best" from="-59803463#5" to="29186154#6"/>
    <trip id="veh241" type="veh_passenger" depart="1364.91" departLane="best" from="315526581#2" to="-333061574#1"/>
    <trip id="veh242" type="veh_passenger" depart="1370.57" departLane="best" from="38156033#0" to="81924134#0"/>
    <trip id="veh243" type="veh_passenger" depart="1376.23" departLane="best" from="-333061573#2" to="-122963283#7"/>
    <trip id="veh246" type="veh_passenger" depart="1393.22" departLane="best" from="30528320#0" to="-27193116#5"/>
    <trip id="veh247" type="veh_passenger" depart="1398.89" departLane="best" from="30287734" to="30141505#0"/>
    <trip id="veh248" type="veh_passenger" depart="1404.55" departLane="best" from="-314475701#1" to="37293912#1"/>
    <trip id="veh249" type="veh_passenger" depart="1410.21" departLane="best" from="42919373#1" to="29046083#0"/>
    <trip id="veh250" type="veh_passenger" depart="1415.88" departLane="best" from="-36729030#1" to="86533504"/>
    <trip id="veh251" type="veh_passenger" depart="1421.54" departLane="best" from="36726223#1" to="123412757#0"/>
    <trip id="veh252" type="veh_passenger" depart="1427.20" departLane="best" from="217189185#0" to="123403661#0"/>
    <trip id="veh253" type="veh_passenger" depart="1432.87" departLane="best" from="42574049" to="572656872#0"/>
    <trip id="veh254" type="veh_passenger" depart="1438.53" departLane="best" from="-317000784#1" to="8169088"/>
    <trip id="veh255" type="veh_passenger" depart="1444.19" departLane="best" from="28920789" to="59804880#0"/>
    <trip id="veh256" type="veh_passenger" depart="1449.86" departLane="best" from="30471501" to="183090993"/>
    <trip id="veh257" type="veh_passenger" depart="1455.52" departLane="best" from="30955822#0" to="81924134#0"/>
    <trip id="veh258" type="veh_passenger" depart="1461.19" departLane="best" from="24336395#0" to="22907032#0"/>
    <trip id="veh260" type="veh_passenger" depart="1472.51" departLane="best" from="41454600#0" to="-30156607#1"/>
    <trip id="veh262" type="veh_passenger" depart="1483.84" departLane="best" departSpeed="max" from="175625199#0" to="29690379#0"/>
    <trip id="veh263" type="veh_passenger" depart="1489.50" departLane="best" from="123412757#0" to="-122963283#7"/>
    <trip id="veh264" type="veh_passenger" depart="1495.17" departLane="best" from="-76185026#1" to="4250285#0"/>
    <trip id="veh265" type="veh_passenger" depart="1500.83" departLane="best" departSpeed="max" from="122948203#0" to="77615451#0"/>
    <trip id="veh268" type="veh_passenger" depart="1517.82" departLane="best" from="-28321714#0" to="315526581#2"/>
    <trip id="veh269" type="veh_passenger" depart="1523.48" departLane="best" from="194383770#0" to="36730339"/>
    <trip id="veh270" type="veh_passenger" depart="1529.15" departLane="best" from="30287734" to="30263585"/>
    <trip id="veh271" type="veh_passenger" depart="1534.81" departLane="best" from="194388451#0" to="4247504#0"/>
    <trip id="veh272" type="veh_passenger" depart="1540.47" departLane="best" departSpeed="max" from="-29050361#2" to="-77652491"/>
    <trip id="veh273" type="veh_passenger" depart="1546.14" departLane="best" from="30287735" to="122962417#0"/>
    <trip id="veh274" type="veh_passenger" depart="1551.80" departLane="best" from="26427639#0" to="217644147"/>
    <trip id="veh275" type="veh_passenger" depart="1557.47" departLane="best" from="230521085#0" to="17132580#0"/>
    <trip id="veh276" type="veh_passenger" depart="1563.13" departLane="best" from="314642992#0" to="123403649#0"/>
    <trip id="veh277" type="veh_passenger" depart="1568.79" departLane="best" from="30436421#0" to="114846199"/>
    <trip id="veh278" type="veh_passenger" depart="1574.46" departLane="best" from="-81152595#1" to="-344789082"/>
    <trip id="veh279" type="veh_passenger" depart="1580.12" departLane="best" departSpeed="max" from="-75509295" to="-344789082"/>
    <trip id="veh280" type="veh_passenger" depart="1585.78" departLane="best" from="238779011#2" to="36730360"/>
    <trip id="veh281" type="veh_passenger" depart="1591.45" departLane="best" from="-75384656#1" to="-77650250#1"/>
    <trip id="veh282" type="veh_passenger" depart="1597.11" departLane="best" from="188685428#2" to="329750718"/>
    <trip id="veh283" type="veh_passenger" depart="1602.77" departLane="best" from="81523598#1" to="25455716#0"/>